#       Name:                   1QSN_H3_9_19_ac_14_18
#       Creating user name:     User
#       Creation time:          Mon Mar 09 11:19:03 2009


#       Modifying user name:    User
#       Modification time:      Mon Mar 09 11:19:03 2009


@<TRIPOS>MOLECULE
1QSN_H3_9_19_ac_14_18
  161   161    11    0    0
SMALL
USER_CHARGES

File created by VEGA ZZ 2.3.1
@<TRIPOS>ATOM
      1 N          27.9480    6.5980   63.1120 N.4       1 LYS309     -0.0644
      2 H1         26.9903    6.2472   63.1007 H         1 LYS309      0.2750
      3 H2         28.5301    6.0764   63.7673 H         1 LYS309      0.2750
      4 H3         28.3360    6.4561   62.1794 H         1 LYS309      0.2750
      5 CA         27.9850    8.0650   63.3930 C.3       1 LYS309      0.1902
      6 HA         27.4225    8.5946   62.5891 H         1 LYS309      0.0687
      7 C          29.4210    8.5910   63.4100 C.2       1 LYS309      0.2312
      8 O          30.3640    7.8470   63.6940 O.2       1 LYS309     -0.2773
      9 CB         27.3060    8.3530   64.7330 C.3       1 LYS309     -0.0286
     10 HB1        27.3336    9.4478   64.9427 H         1 LYS309      0.0254
     11 HB2        27.7483    7.7556   65.5641 H         1 LYS309      0.0254
     12 HB3        26.2355    8.0558   64.6381 H         1 LYS309      0.0254
     13 N          29.5830    9.8760   63.1040 N.am      2 SER310     -0.2455
     14 H          28.7649   10.4400   62.8738 H         2 SER310      0.1312
     15 CA         30.9030   10.4970   63.0900 C.3       2 SER310      0.0850
     16 HA         31.6123    9.8167   63.6165 H         2 SER310      0.0554
     17 C          30.9100   11.8460   63.8140 C.2       2 SER310      0.2182
     18 O          31.6170   12.0130   64.8110 O.2       2 SER310     -0.2778
     19 CB         31.3850   10.6660   61.6540 C.3       2 SER310     -0.0411
     20 HB1        32.3939   11.1406   61.6433 H         2 SER310      0.0249
     21 HB2        30.6518   11.2292   61.0308 H         2 SER310      0.0249
     22 HB3        31.4885    9.6474   61.2125 H         2 SER310      0.0249
     23 N          30.1260   12.7990   63.3120 N.am      3 THR311     -0.2485
     24 H          29.5648   12.6034   62.4831 H         3 THR311      0.1309
     25 CA         30.0590   14.1140   63.9290 C.3       3 THR311      0.0765
     26 HA1        30.5113   14.0821   64.9477 H         3 THR311      0.0521
     27 HA2        28.9788   14.3576   64.0598 H         3 THR311      0.0521
     28 C          30.6760   15.2480   63.1180 C.2       3 THR311      0.2153
     29 O          29.9770   16.1610   62.6810 O.2       3 THR311     -0.2781
     30 N          31.9910   15.1970   62.9230 N.am      4 GLY312     -0.2487
     31 H          32.5265   14.4188   63.3078 H         4 GLY312      0.1309
     32 CA         32.6760   16.2350   62.1690 C.3       4 GLY312      0.0765
     33 HA1        31.9800   17.0587   61.8857 H         4 GLY312      0.0521
     34 HA2        33.0454   15.7716   61.2245 H         4 GLY312      0.0521
     35 C          33.8820   16.7630   62.9150 C.2       4 GLY312      0.2153
     36 O          33.9620   17.9530   63.1970 O.2       4 GLY312     -0.2781
     37 N          34.8230   15.8810   63.2300 N.am      5 GLY313     -0.2487
     38 H          34.7160   14.9071   62.9463 H         5 GLY313      0.1309
     39 CA         36.0050   16.2870   63.9750 C.3       5 GLY313      0.0765
     40 HA1        36.6906   15.4168   64.1009 H         5 GLY313      0.0521
     41 HA2        35.6612   16.5791   64.9947 H         5 GLY313      0.0521
     42 C          36.7730   17.4720   63.4110 C.2       5 GLY313      0.2155
     43 O          37.7280   17.9580   64.0250 O.2       5 GLY313     -0.2781
     44 N          36.3560   17.9140   62.2290 N.am      6 LYS314     -0.2459
     45 H          35.5777   17.4246   61.7872 H         6 LYS314      0.1312
     46 CA         36.9330   19.0490   61.5200 C.3       6 LYS314      0.0878
     47 HA         38.0005   18.8438   61.2719 H         6 LYS314      0.0557
     48 C          36.8310   20.2700   62.4340 C.2       6 LYS314      0.2187
     49 O          36.2710   21.2950   62.0620 O.2       6 LYS314     -0.2778
     50 CB         36.1180   19.2300   60.2340 C.3       6 LYS314     -0.0289
     51 HB1        35.0311   19.1561   60.4717 H         6 LYS314      0.0285
     52 HB2        36.3621   18.3647   59.5746 H         6 LYS314      0.0285
     53 CG         36.3680   20.4720   59.4280 C.3       6 LYS314     -0.0500
     54 HG1        36.0178   21.3793   59.9734 H         6 LYS314      0.0266
     55 HG2        35.7596   20.3903   58.4972 H         6 LYS314      0.0266
     56 CD         37.7960   20.6150   59.0130 C.3       6 LYS314     -0.0399
     57 HD1        38.4399   20.8499   59.8925 H         6 LYS314      0.0278
     58 HD2        37.8519   21.4881   58.3217 H         6 LYS314      0.0278
     59 CE         38.3280   19.4280   58.2700 C.3       6 LYS314      0.0031
     60 HE1        39.2583   19.6797   57.7093 H         6 LYS314      0.0429
     61 HE2        37.5574   19.1306   57.5210 H         6 LYS314      0.0429
     62 NZ         38.5330   18.2830   59.1680 N.am      6 LYS314     -0.2586
     63 HZ         37.7413   17.9696   59.7296 H         6 LYS314      0.1303
     64 C1         39.8484   17.5355   59.3142 C.2       6 LYS314      0.1976
     65 O1         41.0127   17.9965   58.4883 O.2       6 LYS314     -0.2798
     66 C2         40.0633   16.3356   60.2553 C.3       6 LYS314      0.0090
     67 H21        41.0282   15.7873   60.3625 H         6 LYS314      0.0319
     68 H22        39.2851   15.5787   60.0009 H         6 LYS314      0.0319
     69 H23        39.8075   16.7019   61.2769 H         6 LYS314      0.0319
     70 N          37.4040   20.1580   63.6300 N.am      7 ALA315     -0.2459
     71 H          37.9256   19.3093   63.8490 H         7 ALA315      0.1312
     72 CA         37.3110   21.2100   64.6400 C.3       7 ALA315      0.0852
     73 HA         36.6497   22.0026   64.2186 H         7 ALA315      0.0554
     74 C          38.5990   21.9040   65.0920 C.2       7 ALA315      0.2211
     75 O          39.2880   21.4400   66.0030 O.2       7 ALA315     -0.2776
     76 CB         36.6080   20.6500   65.8230 C.3       7 ALA315     -0.0411
     77 HB1        36.5370   21.4527   66.5936 H         7 ALA315      0.0249
     78 HB2        37.0884   19.7214   66.2105 H         7 ALA315      0.0249
     79 HB3        35.5705   20.3892   65.5087 H         7 ALA315      0.0249
     80 N          38.9150   23.0550   64.4700 N.am      8 PRO316     -0.2316
     81 CA         40.0970   23.8690   64.7580 C.3       8 PRO316      0.0907
     82 HA         40.8803   23.2595   65.2661 H         8 PRO316      0.0559
     83 C          39.7360   25.0930   65.5990 C.2       8 PRO316      0.2189
     84 O          38.7770   25.8030   65.2850 O.2       8 PRO316     -0.2778
     85 CB         40.5450   24.2650   63.3760 C.3       8 PRO316     -0.0276
     86 HB1        41.1535   23.5063   62.8307 H         8 PRO316      0.0285
     87 HB2        41.1477   25.1993   63.4601 H         8 PRO316      0.0285
     88 CG         39.2190   24.6150   62.7440 C.3       8 PRO316     -0.0379
     89 HG1        39.2578   24.7376   61.6364 H         8 PRO316      0.0278
     90 HG2        38.8710   25.5781   63.1850 H         8 PRO316      0.0278
     91 CD         38.2760   23.5090   63.2210 C.3       8 PRO316      0.0071
     92 HD1        37.2096   23.8171   63.3266 H         8 PRO316      0.0431
     93 HD2        38.3231   22.6730   62.4847 H         8 PRO316      0.0431
     94 N          40.5250   25.3360   66.6490 N.am      9 ARG317     -0.2456
     95 H          41.3150   24.7123   66.8144 H         9 ARG317      0.1312
     96 CA         40.3150   26.4530   67.5770 C.3       9 ARG317      0.0879
     97 HA         39.7121   26.0830   68.4389 H         9 ARG317      0.0557
     98 C          39.5860   27.6170   66.9550 C.2       9 ARG317      0.2187
     99 O          38.3800   27.5870   66.7280 O.2       9 ARG317     -0.2778
    100 CB         41.6490   26.9850   68.1160 C.3       9 ARG317     -0.0258
    101 HB1        41.4587   27.8097   68.8418 H         9 ARG317      0.0286
    102 HB2        42.1910   27.4341   67.2512 H         9 ARG317      0.0286
    103 CG         42.5820   25.9630   68.7370 C.3       9 ARG317     -0.0154
    104 HG1        43.2083   25.4433   67.9749 H         9 ARG317      0.0299
    105 HG2        41.9517   25.1918   69.2382 H         9 ARG317      0.0299
    106 CD         43.4240   26.6420   69.8140 C.3       9 ARG317      0.1045
    107 HD1        42.8814   26.6530   70.7880 H         9 ARG317      0.0711
    108 HD2        43.5623   27.7037   69.5026 H         9 ARG317      0.0711
    109 NE         44.7550   26.0630   69.9730 N.pl3     9 ARG317     -0.4450
    110 HE         44.9410   25.5203   70.8164 H         9 ARG317      0.3153
    111 CZ         45.7420   26.1970   69.0890 C.cat     9 ARG317      0.5062
    112 NH1        45.5520   26.8890   67.9720 N.pl3     9 ARG317     -0.4573
    113 HH11       46.3079   26.9916   67.2949 H         9 ARG317      0.3114
    114 HH12       44.6457   27.3201   67.7900 H         9 ARG317      0.3114
    115 NH2        46.9310   25.6590   69.3320 N.pl3     9 ARG317     -0.4573
    116 HH21       47.6869   25.7616   68.6549 H         9 ARG317      0.3114
    117 HH22       47.0889   25.1422   70.1971 H         9 ARG317      0.3114
    118 N          40.3570   28.6680   66.7330 N.am     10 LYS318     -0.2457
    119 H          41.3359   28.6074   67.0133 H        10 LYS318      0.1312
    120 CA         39.9050   29.9010   66.1180 C.3      10 LYS318      0.0878
    121 HA         38.9056   29.7849   65.6373 H        10 LYS318      0.0557
    122 C          41.0000   30.0590   65.1040 C.2      10 LYS318      0.2186
    123 O          40.8950   30.8300   64.1540 O.2      10 LYS318     -0.2778
    124 CB         39.9270   31.0600   67.1210 C.3      10 LYS318     -0.0289
    125 HB1        38.8855   31.3739   67.3659 H        10 LYS318      0.0285
    126 HB2        40.4156   31.9227   66.6110 H        10 LYS318      0.0285
    127 CG         40.7130   30.7980   68.4080 C.3      10 LYS318     -0.0500
    128 HG1        41.0444   31.7509   68.8826 H        10 LYS318      0.0266
    129 HG2        41.6302   30.2293   68.1277 H        10 LYS318      0.0266
    130 CD         39.9220   29.9330   69.3890 C.3      10 LYS318     -0.0399
    131 HD1        39.5816   28.9844   68.9120 H        10 LYS318      0.0278
    132 HD2        39.0102   30.5061   69.6778 H        10 LYS318      0.0278
    133 CE         40.7120   29.6620   70.6640 C.3      10 LYS318      0.0031
    134 HE1        41.5689   28.9717   70.4837 H        10 LYS318      0.0429
    135 HE2        40.0241   29.1614   71.3847 H        10 LYS318      0.0429
    136 N1         41.1608   30.9704   71.2941 N.am     10 LYS318     -0.2586
    137 H12        41.7901   31.4284   70.6348 H        10 LYS318      0.1303
    138 C1         41.9486   30.7002   72.5656 C.2      10 LYS318      0.1976
    139 C2         43.1321   29.7468   72.3165 C.3      10 LYS318      0.0090
    140 H21        43.7100   29.5485   73.2492 H        10 LYS318      0.0319
    141 H22        43.7935   30.1258   71.5028 H        10 LYS318      0.0319
    142 H23        42.7087   28.7736   71.9745 H        10 LYS318      0.0319
    143 O1         42.3915   31.9914   73.1874 O.2      10 LYS318     -0.2798
    144 N          42.0550   29.2860   65.3390 N.am     11 GLN319     -0.2473
    145 H          42.0270   28.6994   66.1730 H        11 GLN319      0.1311
    146 CA         43.2470   29.2050   64.5080 C.3      11 GLN319      0.0703
    147 HA         42.9870   28.7039   63.5465 H        11 GLN319      0.0540
    148 C          44.2900   28.3670   65.2400 C.2      11 GLN319      0.1375
    149 H          44.0828   27.3206   65.5205 H        11 GLN319      0.1043
    150 O          45.3880   28.9020   65.5130 O.2      11 GLN319     -0.2994
    151 CB         43.8200   30.5890   64.2100 C.3      11 GLN319     -0.0226
    152 HB1        44.0105   31.1478   65.1559 H        11 GLN319      0.0289
    153 HB2        43.0410   31.1530   63.6458 H        11 GLN319      0.0289
    154 CG         45.0780   30.5600   63.3370 C.3      11 GLN319      0.0224
    155 HG1        45.9912   30.4254   63.9625 H        11 GLN319      0.0356
    156 HG2        45.1601   31.5565   62.8436 H        11 GLN319      0.0356
    157 CD         45.0200   29.5090   62.2270 C.2      11 GLN319      0.1981
    158 OE1        45.1600   28.3070   62.4780 O.2      11 GLN319     -0.2798
    159 NE2        44.8120   29.9620   60.9950 N.am     11 GLN319     -0.2724
    160 HE21       44.7733   29.2612   60.2549 H        11 GLN319      0.1266
    161 HE22       44.6973   30.9566   60.8001 H        11 GLN319      0.1266